Version 4
SHEET 1 880 680
WIRE 96 128 -128 128
WIRE 320 160 240 160
WIRE -128 176 -128 128
WIRE -128 288 -128 256
FLAG -128 288 0
FLAG 320 160 out
SYMBOL SpecialFunctions\\modulate 96 128 R0
WINDOW 3 -41 120 Left 2
SYMATTR InstName A1
SYMATTR Value mark=15k space=10k
SYMBOL voltage -128 160 R0
WINDOW 123 0 0 Left 2
WINDOW 39 0 0 Left 2
SYMATTR InstName V1
SYMATTR Value SINE(0 1 1k)
TEXT -162 312 Left 2 !.tran 5m
