Version 4
SHEET 1 944 680
WIRE 880 -320 880 -352
WIRE 160 -256 160 -288
WIRE 160 -256 16 -256
WIRE 304 -256 160 -256
WIRE 880 -224 880 -240
WIRE 880 -224 800 -224
WIRE 16 -208 16 -256
WIRE 304 -208 304 -256
WIRE 880 -208 880 -224
WIRE 800 -192 800 -224
WIRE 880 -96 880 -128
WIRE 16 -80 16 -128
WIRE 160 -32 80 -32
WIRE -144 64 -192 64
WIRE 16 64 16 16
WIRE 16 64 -64 64
WIRE 432 80 400 80
WIRE 528 80 512 80
WIRE 544 80 528 80
WIRE 672 80 624 80
WIRE 304 112 304 -128
WIRE 400 112 400 80
WIRE -1344 144 -1728 144
WIRE 16 144 16 64
WIRE 64 144 16 144
WIRE 160 160 160 -32
WIRE 160 160 128 160
WIRE 240 160 160 160
WIRE -512 176 -1200 176
WIRE -352 176 -432 176
WIRE -224 176 -352 176
WIRE -144 176 -224 176
WIRE 64 176 -64 176
WIRE -1728 208 -1728 144
WIRE -1344 208 -1536 208
WIRE 96 208 96 192
WIRE -224 224 -224 176
WIRE -352 240 -352 176
WIRE 528 256 528 80
WIRE 544 256 528 256
WIRE 672 272 672 80
WIRE 672 272 608 272
WIRE 848 272 672 272
WIRE 304 288 304 208
WIRE 352 288 304 288
WIRE 448 288 352 288
WIRE 544 288 448 288
WIRE -1728 320 -1728 288
WIRE -1536 320 -1536 208
WIRE 352 320 352 288
WIRE 448 320 448 288
WIRE 576 320 576 304
WIRE -352 336 -352 304
WIRE -224 336 -224 304
WIRE 352 416 352 384
WIRE 448 416 448 400
WIRE -1536 432 -1536 400
FLAG 96 128 +8.5
FLAG 96 208 0
FLAG 576 320 0
FLAG 448 416 0
FLAG 352 416 0
FLAG 400 112 0
FLAG -224 336 0
FLAG -352 336 0
FLAG 576 240 +8.5
FLAG 160 -288 +8.5
FLAG -192 64 -8.5
FLAG 800 -192 0
FLAG 880 -352 +8.5
FLAG 880 -96 -8.5
FLAG 848 272 out
FLAG -1536 432 0
FLAG -1728 320 0
SYMBOL Opamps\\LTC6244 96 160 R0
SYMATTR InstName U1
SYMBOL Opamps\\LTC6244 576 272 R0
SYMATTR InstName U2
SYMBOL npn 80 -80 M0
SYMATTR InstName Q1
SYMATTR Value BC847A
SYMBOL npn 240 112 R0
SYMATTR InstName Q2
SYMATTR Value BC847A
SYMBOL res 0 -224 R0
SYMATTR InstName R1
SYMATTR Value 200
SYMBOL res 288 -224 R0
SYMATTR InstName R2
SYMATTR Value 200
SYMBOL res -48 48 R90
WINDOW 0 0 56 VBottom 2
WINDOW 3 32 56 VTop 2
SYMATTR InstName R3
SYMATTR Value 10k
SYMBOL res -48 160 R90
WINDOW 0 0 56 VBottom 2
WINDOW 3 32 56 VTop 2
SYMATTR InstName R4
SYMATTR Value 1k
SYMBOL res -416 160 R90
WINDOW 0 0 56 VBottom 2
WINDOW 3 32 56 VTop 2
SYMATTR InstName R5
SYMATTR Value 10k
SYMBOL res -208 320 R180
WINDOW 0 36 76 Left 2
WINDOW 3 36 40 Left 2
SYMATTR InstName R6
SYMATTR Value 10k
SYMBOL res 432 304 R0
SYMATTR InstName R7
SYMATTR Value 10Meg
SYMBOL res 640 64 R90
WINDOW 0 0 56 VBottom 2
WINDOW 3 32 56 VTop 2
SYMATTR InstName R8
SYMATTR Value 10k
SYMBOL res 528 64 R90
WINDOW 0 0 56 VBottom 2
WINDOW 3 32 56 VTop 2
SYMATTR InstName R9
SYMATTR Value 10k
SYMBOL schottky -336 304 R180
WINDOW 0 24 64 Left 2
WINDOW 3 24 0 Left 2
SYMATTR InstName D1
SYMATTR Value BAT54
SYMBOL cap 336 320 R0
SYMATTR InstName C1
SYMATTR Value 4.7n
SYMBOL voltage 880 -336 R0
WINDOW 123 0 0 Left 2
WINDOW 39 0 0 Left 2
SYMATTR InstName V1
SYMATTR Value 8.5
SYMBOL voltage 880 -224 R0
WINDOW 123 0 0 Left 2
WINDOW 39 0 0 Left 2
SYMATTR InstName V2
SYMATTR Value 8.5
SYMBOL SpecialFunctions\\modulate -1344 144 R0
WINDOW 3 -58 117 Left 2
SYMATTR Value space=0 mark=200k
SYMATTR InstName A1
SYMBOL voltage -1536 304 R0
WINDOW 123 0 0 Left 2
WINDOW 39 0 0 Left 2
SYMATTR InstName V3
SYMATTR Value PWL file=pwl.txt
SYMBOL voltage -1728 192 R0
WINDOW 123 0 0 Left 2
WINDOW 39 0 0 Left 2
WINDOW 3 48 55 Left 2
SYMATTR InstName V4
SYMATTR Value 1
TEXT -656 432 Left 2 !.tran 200u
