Version 4
SHEET 1 880 680
WIRE -48 128 -128 128
WIRE 96 128 -48 128
WIRE 416 128 304 128
WIRE 304 160 304 128
WIRE 304 160 240 160
WIRE 320 160 304 160
WIRE 416 160 416 128
WIRE 432 160 416 160
WIRE 560 160 512 160
WIRE -128 176 -128 128
WIRE 96 192 -32 192
WIRE 560 192 560 160
WIRE -128 288 -128 256
WIRE -32 288 -32 192
WIRE 560 288 560 256
WIRE -32 400 -32 368
FLAG -128 288 0
FLAG 320 160 out
FLAG -32 400 0
FLAG -48 128 in
FLAG 560 288 0
SYMBOL SpecialFunctions\\modulate 96 128 R0
WINDOW 3 -41 120 Left 2
SYMATTR Value mark=2k space=100
SYMATTR InstName A1
SYMBOL voltage -128 160 R0
WINDOW 123 0 0 Left 2
WINDOW 39 0 0 Left 2
WINDOW 3 -362 -16 Left 2
SYMATTR InstName V1
SYMATTR Value PWL(0 0 19.9m 1 20m 0 39.9m 1)
SYMBOL voltage -32 272 R0
WINDOW 123 0 0 Left 2
WINDOW 39 0 0 Left 2
WINDOW 3 -1 175 Left 2
SYMATTR InstName V2
SYMATTR Value 1
SYMBOL res 528 144 R90
WINDOW 0 0 56 VBottom 2
WINDOW 3 32 56 VTop 2
SYMATTR InstName R1
SYMATTR Value 100
SYMBOL cap 544 192 R0
SYMATTR InstName C1
SYMATTR Value 1µ
TEXT -488 176 Left 2 !.tran 40m
