Version 4
SHEET 1 944 680
WIRE -160 -96 -288 -96
WIRE 64 -96 -80 -96
WIRE 176 -96 64 -96
WIRE -288 -16 -288 -96
WIRE 64 -16 64 -96
WIRE 176 0 176 -96
WIRE -288 80 -288 64
WIRE 64 80 64 64
WIRE 176 80 176 64
FLAG 64 80 0
FLAG 176 80 0
FLAG -288 80 0
SYMBOL res -64 -112 R90
WINDOW 0 0 56 VBottom 2
WINDOW 3 32 56 VTop 2
SYMATTR InstName R1
SYMATTR Value 10k
SYMBOL ind 48 -32 R0
SYMATTR InstName L1
SYMATTR Value 0.1m
SYMBOL cap 160 0 R0
SYMATTR InstName C1
SYMATTR Value 1n
SYMBOL voltage -288 -32 R0
WINDOW 123 24 124 Left 2
WINDOW 39 0 0 Left 2
SYMATTR InstName V1
SYMATTR Value ""
SYMATTR Value2 AC 1
TEXT -288 160 Left 2 !.ac lin 100 1 1Meg
