Version 4
SHEET 1 880 680
WIRE -48 128 -128 128
WIRE 96 128 -48 128
WIRE 368 160 240 160
WIRE 528 160 448 160
WIRE 624 160 528 160
WIRE -128 176 -128 128
WIRE 96 192 -32 192
WIRE 528 224 528 160
WIRE 624 240 624 160
WIRE -128 288 -128 256
WIRE -32 288 -32 192
WIRE 528 320 528 304
WIRE 624 320 624 304
WIRE -32 400 -32 368
FLAG -128 288 0
FLAG -32 400 0
FLAG -48 128 in
FLAG 528 320 0
FLAG 624 320 0
SYMBOL SpecialFunctions\\modulate 96 128 R0
WINDOW 3 -41 120 Left 2
SYMATTR Value mark=1Meg space=0
SYMATTR InstName A1
SYMBOL voltage -128 160 R0
WINDOW 123 0 0 Left 2
WINDOW 39 0 0 Left 2
WINDOW 3 -362 -16 Left 2
SYMATTR Value PWL(0 0 20m 1)
SYMATTR InstName V1
SYMBOL voltage -32 272 R0
WINDOW 123 0 0 Left 2
WINDOW 39 0 0 Left 2
WINDOW 3 -1 175 Left 2
SYMATTR Value 1
SYMATTR InstName V2
SYMBOL res 464 144 R90
WINDOW 0 0 56 VBottom 2
WINDOW 3 32 56 VTop 2
SYMATTR InstName R1
SYMATTR Value 5k
SYMBOL ind 512 208 R0
SYMATTR InstName L1
SYMATTR Value 0.1m
SYMBOL cap 608 240 R0
SYMATTR InstName C1
SYMATTR Value 1n
TEXT -488 176 Left 2 !.tran 20m
