Version 4
SHEET 1 892 680
WIRE 64 96 64 48
WIRE 224 96 224 48
WIRE 384 96 384 48
WIRE 64 192 64 176
WIRE 224 192 224 176
WIRE 384 192 384 176
WIRE 64 496 64 448
WIRE 384 496 384 432
WIRE 64 592 64 576
WIRE 384 592 384 576
FLAG 384 192 0
FLAG 224 192 0
FLAG 64 192 0
FLAG 64 48 fundamental
FLAG 224 48 2da_armonica
FLAG 384 48 moduladora
FLAG 64 592 0
FLAG 64 448 portadora
FLAG 384 592 0
FLAG 384 432 am
SYMBOL voltage 64 80 R0
WINDOW 3 -65 151 Left 2
WINDOW 123 0 0 Left 2
WINDOW 39 0 0 Left 2
SYMATTR Value SINE(0.4 0.2 1k)
SYMATTR InstName V1
SYMBOL voltage 224 80 R0
WINDOW 3 -31 155 Left 2
WINDOW 123 0 0 Left 2
WINDOW 39 0 0 Left 2
SYMATTR Value SINE(0.2 0.1 2k)
SYMATTR InstName V2
SYMBOL bv 384 80 R0
SYMATTR InstName B1
SYMATTR Value V=V(fundamental) + V(2da_armonica)
SYMBOL voltage 64 480 R0
WINDOW 123 0 0 Left 2
WINDOW 39 0 0 Left 2
SYMATTR InstName V3
SYMATTR Value SINE(0 1 100k)
SYMBOL bv 384 480 R0
SYMATTR InstName B2
SYMATTR Value V=V(portadora) * V(fundamental)
TEXT 0 296 Left 2 !.tran 5m
