Version 4
SHEET 1 1108 680
WIRE 464 32 368 32
WIRE 368 64 368 32
WIRE 368 64 288 64
WIRE 400 64 368 64
WIRE 464 64 464 32
WIRE 496 64 464 64
WIRE 624 64 560 64
WIRE 688 64 624 64
WIRE 816 64 768 64
WIRE 864 64 816 64
WIRE 1088 64 944 64
WIRE 624 112 624 64
WIRE 816 112 816 64
WIRE 1088 112 1088 64
WIRE 288 144 288 64
WIRE -48 240 -48 224
WIRE 128 240 128 224
WIRE 288 240 288 224
WIRE 624 240 624 176
WIRE 816 240 816 176
WIRE 816 240 624 240
WIRE 1088 240 1088 192
WIRE 1088 240 816 240
WIRE 816 272 816 240
FLAG -48 240 0
FLAG 128 240 0
FLAG 288 240 0
FLAG 400 64 out
FLAG -48 144 Vc
FLAG 128 144 Vm
FLAG 816 272 0
SYMBOL voltage -48 128 R0
WINDOW 3 -88 149 Left 2
WINDOW 123 0 0 Left 2
WINDOW 39 0 0 Left 2
SYMATTR Value SINE(0 2 1Meg)
SYMATTR InstName V1
SYMBOL voltage 128 128 R0
WINDOW 3 -76 152 Left 2
WINDOW 123 0 0 Left 2
WINDOW 39 0 0 Left 2
SYMATTR Value SINE(1.1 0.5 1k)
SYMATTR InstName V2
SYMBOL bv 288 128 R0
WINDOW 3 -58 152 Left 2
SYMATTR Value V=V(Vc)*V(Vm)
SYMATTR InstName B2
SYMBOL diode 496 80 R270
WINDOW 0 32 32 VTop 2
WINDOW 3 0 32 VBottom 2
SYMATTR InstName D1
SYMBOL res 784 48 R90
WINDOW 0 0 56 VBottom 2
WINDOW 3 32 56 VTop 2
SYMATTR InstName R1
SYMATTR Value 1k
SYMBOL res 960 48 R90
WINDOW 0 0 56 VBottom 2
WINDOW 3 32 56 VTop 2
SYMATTR InstName R2
SYMATTR Value 1k
SYMBOL res 1104 208 R180
WINDOW 0 36 76 Left 2
WINDOW 3 36 40 Left 2
SYMATTR InstName R3
SYMATTR Value 100k
SYMBOL cap 800 112 R0
SYMATTR InstName C2
SYMATTR Value 500n
TEXT -136 344 Left 2 !.tran 5m
