Version 4
SHEET 1 880 680
WIRE 400 64 288 64
WIRE 288 144 288 64
WIRE -48 240 -48 224
WIRE 128 240 128 224
WIRE 288 240 288 224
FLAG -48 240 0
FLAG 128 240 0
FLAG 288 240 0
FLAG 400 64 out
FLAG -48 144 Vc
FLAG 128 144 Vm
SYMBOL voltage -48 128 R0
WINDOW 3 -88 149 Left 2
WINDOW 123 0 0 Left 2
WINDOW 39 0 0 Left 2
SYMATTR InstName V1
SYMATTR Value SINE(0 2 1Meg)
SYMBOL voltage 128 128 R0
WINDOW 3 -76 152 Left 2
WINDOW 123 0 0 Left 2
WINDOW 39 0 0 Left 2
SYMATTR InstName V2
SYMATTR Value SINE(1 0.6 1k)
SYMBOL bv 288 128 R0
WINDOW 3 -58 152 Left 2
SYMATTR InstName B2
SYMATTR Value V=V(Vc)*V(Vm)
TEXT -136 344 Left 2 !.tran 5m
