Version 4
SHEET 1 880 680
WIRE 144 112 16 112
WIRE 272 112 208 112
WIRE 400 112 272 112
WIRE 16 144 16 112
WIRE 272 144 272 112
WIRE 400 144 400 112
WIRE 16 256 16 224
WIRE 272 256 272 208
WIRE 400 256 400 224
FLAG 16 256 0
FLAG 272 256 0
FLAG 400 256 0
SYMBOL voltage 16 128 R0
WINDOW 3 5 153 Left 2
WINDOW 123 0 0 Left 2
WINDOW 39 0 0 Left 2
SYMATTR InstName V1
SYMATTR Value SINE(0 15 50 0 0 0 10)
SYMBOL diode 144 128 R270
WINDOW 0 32 32 VTop 2
WINDOW 3 0 32 VBottom 2
SYMATTR InstName D1
SYMBOL cap 256 144 R0
SYMATTR InstName C1
SYMATTR Value 1000µ
SYMBOL res 384 128 R0
SYMATTR InstName R1
SYMATTR Value 100
TEXT 16 304 Left 2 !.tran 0 200m 20m
