Version 4
SHEET 1 1036 680
WIRE 320 -128 272 -128
WIRE 448 -128 384 -128
WIRE 576 -128 528 -128
WIRE 704 -128 576 -128
WIRE 832 -128 784 -128
WIRE 272 -96 272 -128
WIRE -160 -16 -160 -32
WIRE 576 16 576 -128
WIRE 608 16 576 16
WIRE 832 32 832 -128
WIRE 832 32 672 32
WIRE 112 48 96 48
WIRE 192 48 176 48
WIRE 320 48 272 48
WIRE 480 48 480 32
WIRE 480 48 320 48
WIRE 608 48 480 48
WIRE 480 64 480 48
WIRE -160 80 -160 64
WIRE 320 80 320 48
WIRE 96 112 96 48
WIRE 320 160 320 144
WIRE 480 160 480 144
WIRE 96 208 96 192
FLAG -160 80 0
FLAG 96 208 0
FLAG 320 160 0
FLAG 272 -96 0
FLAG 640 64 0
FLAG -160 -32 V+
FLAG 640 0 V+
FLAG 480 160 0
FLAG 480 -48 V+
SYMBOL voltage 96 96 R0
WINDOW 123 24 124 Left 2
WINDOW 39 0 0 Left 2
WINDOW 3 24 152 Left 2
SYMATTR Value2 AC 1
SYMATTR Value SINE(0 1.284 1000 0 0 0 10)
SYMATTR InstName V1
SYMBOL voltage -160 -32 R0
WINDOW 123 0 0 Left 2
WINDOW 39 0 0 Left 2
SYMATTR InstName V2
SYMATTR Value 5
SYMBOL res 288 32 R90
WINDOW 0 0 56 VBottom 2
WINDOW 3 32 56 VTop 2
SYMATTR InstName R1
SYMATTR Value 5.36k
SYMBOL cap 304 80 R0
SYMATTR InstName C1
SYMATTR Value 100n
SYMBOL res 544 -144 R90
WINDOW 0 0 56 VBottom 2
WINDOW 3 32 56 VTop 2
SYMATTR InstName R2
SYMATTR Value 3.5k
SYMBOL res 800 -144 R90
WINDOW 0 0 56 VBottom 2
WINDOW 3 32 56 VTop 2
SYMATTR InstName R3
SYMATTR Value 10k
SYMBOL Opamps\\opamp2 640 -32 R0
SYMATTR InstName U1
SYMATTR Value LM358
SYMBOL cap 176 32 R90
WINDOW 0 0 32 VBottom 2
WINDOW 3 32 32 VTop 2
SYMATTR InstName C2
SYMATTR Value 10µ
SYMBOL res 464 -64 R0
SYMATTR InstName R4
SYMATTR Value 4.7k
SYMBOL res 464 48 R0
SYMATTR InstName R5
SYMATTR Value 4.7k
SYMBOL cap 384 -144 R90
WINDOW 0 0 32 VBottom 2
WINDOW 3 32 32 VTop 2
SYMATTR InstName C3
SYMATTR Value 10µ
TEXT 640 -224 Left 2 !.inc LM358.lib
TEXT 80 304 Left 2 !.tran 0 100m 0
